Version 4
SHEET 1 880 680
WIRE 416 -16 240 -16
WIRE 416 64 416 -16
WIRE 240 112 240 -16
WIRE 352 160 240 160
WIRE 192 192 64 192
WIRE 64 240 64 192
WIRE 416 240 416 144
WIRE 240 304 240 208
WIRE 352 304 352 240
WIRE 352 304 240 304
WIRE 64 400 64 320
WIRE 240 400 240 304
FLAG 240 400 0
FLAG 64 400 0
FLAG 416 240 0
SYMBOL pmos4 192 112 R0
SYMATTR InstName M1
SYMATTR Value2 l=180nm w=500nm
SYMBOL voltage 64 224 R0
WINDOW 123 0 0 Left 0
WINDOW 39 0 0 Left 0
SYMATTR InstName V1
SYMATTR Value -1.8
SYMBOL voltage 416 48 R0
WINDOW 123 0 0 Left 0
WINDOW 39 0 0 Left 0
SYMATTR InstName V2
SYMATTR Value -1.8
SYMBOL voltage 352 144 R0
WINDOW 123 0 0 Left 0
WINDOW 39 0 0 Left 0
SYMATTR InstName V3
SYMATTR Value 1.8
TEXT -32 448 Left 2 !.include C:\\Users\\Rahul Awari\\Desktop\\LT-Spice\\NMOS I-V\\180nm.lib
TEXT 448 -8 Left 2 !.dc V1 0 -1.8 -0.01 V3 0 1.8 0.6
