Version 4
SHEET 1 880 680
WIRE 352 -32 112 -32
WIRE 112 16 112 -32
WIRE 176 16 112 16
WIRE 352 32 352 -32
WIRE 112 48 112 16
WIRE 64 64 0 64
WIRE 176 96 176 16
WIRE 176 96 112 96
WIRE 352 144 352 112
WIRE 0 160 0 64
WIRE 0 160 -96 160
WIRE 112 160 112 144
WIRE 160 160 112 160
WIRE -96 176 -96 160
WIRE 112 192 112 160
WIRE -96 224 -96 176
WIRE 192 240 112 240
WIRE 0 272 0 160
WIRE 64 272 0 272
WIRE 192 288 192 240
WIRE 192 288 112 288
WIRE 112 320 112 288
WIRE -96 352 -96 304
FLAG 352 144 0
FLAG 112 320 0
FLAG -96 352 0
FLAG -96 176 A
IOPIN -96 176 In
FLAG 160 160 Y
IOPIN 160 160 Out
SYMBOL nmos4 64 192 R0
WINDOW 123 56 100 Left 0
SYMATTR Value2 l=180n w=500n
SYMATTR InstName M1
SYMBOL pmos4 64 144 M180
WINDOW 123 56 44 Left 0
SYMATTR Value2 l=180n w={Wp}
SYMATTR InstName M2
SYMBOL voltage 352 16 R0
WINDOW 123 0 0 Left 0
WINDOW 39 0 0 Left 0
SYMATTR InstName Vdd
SYMATTR Value 1.8
SYMBOL voltage -96 208 R0
WINDOW 3 24 96 Left 0
WINDOW 123 0 0 Left 0
WINDOW 39 0 0 Left 0
SYMATTR Value PULSE(0 1.8 0 10p 10p 50n 100n 10)
SYMATTR InstName Vin
TEXT 440 264 Left 2 !.dc Vin 0 1.8 0.01
TEXT -72 392 Left 2 !.include C:\\Users\\smart\\Documents\\LTspiceXVII\\externalLib\\180nm.lib
TEXT 248 352 Left 2 !.step param Wp 1850n 1900n 10n
